34Bus/Test runs/20_Linear Loads/ieee34-1_Power_elem_kVA.txt

CIRCUIT ELEMENT POWER FLOW

(Power Flow into element from indicated Bus)

Power Delivery Elements

  Bus     Phase     kW     +j   kvar         kVA         PF

ELEMENT = "Vsource.SOURCE"
SOURCEBUS     1      -708.5 +j   -159.7      726.3       0.9755
SOURCEBUS     2      -643.3 +j    -72.1      647.3       0.9938
SOURCEBUS     3      -751.8 +j    -59.4      754.1       0.9969
   TERMINAL TOTAL . -2103.6 +j   -291.2     2123.7       0.9906
SOURCEBUS     0         0.0 +j      0.0        0.0       1.0000
SOURCEBUS     0         0.0 +j      0.0        0.0       1.0000
SOURCEBUS     0         0.0 +j      0.0        0.0       1.0000
   TERMINAL TOTAL .     0.0 +j      0.0        0.0       1.0000

ELEMENT = "Transformer.SUBXF"
SOURCEBUS     1       708.5 +j    159.7      726.3       0.9755
SOURCEBUS     2       643.3 +j     72.1      647.3       0.9938
SOURCEBUS     3       751.8 +j     59.4      754.1       0.9969
SOURCEBUS     0         0.0 +j      0.0        0.0       1.0000
   TERMINAL TOTAL .  2103.6 +j    291.2     2123.7       0.9906
800           1      -782.6 +j   -173.3      801.6       0.9764
800           2      -683.3 +j    -88.7      689.0       0.9917
800           3      -637.7 +j    -29.1      638.4       0.9990
800           0         0.0 +j      0.0        0.0       1.0000
   TERMINAL TOTAL . -2103.6 +j   -291.1     2123.7       0.9906

ELEMENT = "Line.L1"
800           1       782.6 +j    173.3      801.6       0.9764
800           2       683.3 +j     88.7      689.0       0.9917
800           3       637.7 +j     29.1      638.4       0.9990
   TERMINAL TOTAL .  2103.6 +j    291.1     2123.7       0.9906
802           1      -780.9 +j   -172.9      799.8       0.9764
802           2      -682.2 +j    -88.4      688.0       0.9917
802           3      -636.8 +j    -29.1      637.5       0.9990
   TERMINAL TOTAL . -2100.0 +j   -290.4     2119.9       0.9906

ELEMENT = "Line.L2"
802           1       780.9 +j    172.9      799.8       0.9764
802           2       667.2 +j     80.9      672.1       0.9927
802           3       624.3 +j     22.1      624.7       0.9994
   TERMINAL TOTAL .  2072.5 +j    275.9     2090.7       0.9913
806           1      -779.7 +j   -172.6      798.6       0.9764
806           2      -666.6 +j    -80.8      671.5       0.9927
806           3      -623.7 +j    -22.2      624.1       0.9994
   TERMINAL TOTAL . -2070.1 +j   -275.5     2088.3       0.9913

ELEMENT = "Line.L3"
806           1       779.7 +j    172.6      798.6       0.9764
806           2       651.6 +j     73.3      655.7       0.9937
806           3       611.2 +j     15.2      611.4       0.9997
   TERMINAL TOTAL .  2042.6 +j    261.0     2059.2       0.9919
808           1      -757.8 +j   -166.6      775.9       0.9767
808           2      -640.4 +j    -70.7      644.2       0.9940
808           3      -600.5 +j    -15.8      600.7       0.9997
   TERMINAL TOTAL . -1998.7 +j   -253.1     2014.7       0.9921

ELEMENT = "Line.L4"
808           2         8.2 +j      3.2        8.8       0.9313
   TERMINAL TOTAL .     8.2 +j      3.2        8.8       0.9313
810           2        -8.2 +j     -4.2        9.3       0.8892
   TERMINAL TOTAL .    -8.2 +j     -4.2        9.3       0.8892

ELEMENT = "Line.L5"
808           1       757.8 +j    166.6      775.9       0.9767
808           2       623.9 +j     63.2      627.1       0.9949
808           3       600.5 +j     15.8      600.7       0.9997
   TERMINAL TOTAL .  1982.3 +j    245.7     1997.4       0.9924
812           1      -732.3 +j   -158.6      749.3       0.9773
812           2      -611.7 +j    -60.7      614.7       0.9951
812           3      -587.8 +j    -16.3      588.1       0.9996
   TERMINAL TOTAL . -1931.9 +j   -235.6     1946.2       0.9926

ELEMENT = "Line.L6"
812           1       732.3 +j    158.6      749.3       0.9773
812           2       611.7 +j     60.7      614.7       0.9951
812           3       587.8 +j     16.3      588.1       0.9996
   TERMINAL TOTAL .  1931.9 +j    235.6     1946.2       0.9926
814           1      -711.9 +j   -151.7      727.9       0.9781
814           2      -602.2 +j    -58.4      605.0       0.9953
814           3      -577.7 +j    -16.4      577.9       0.9996
   TERMINAL TOTAL . -1891.8 +j   -226.4     1905.3       0.9929

ELEMENT = "Line.L7"
814R          1       711.8 +j    151.3      727.7       0.9781
814R          2       602.1 +j     58.2      604.9       0.9954
814R          3       577.6 +j     16.2      577.8       0.9996
   TERMINAL TOTAL .  1891.5 +j    225.7     1904.9       0.9930
850           1      -711.8 +j   -151.3      727.7       0.9781
850           2      -602.1 +j    -58.2      604.9       0.9954
850           3      -577.6 +j    -16.2      577.8       0.9996
   TERMINAL TOTAL . -1891.5 +j   -225.7     1904.9       0.9930

ELEMENT = "Line.L8"
816           1       173.8 +j     78.8      190.8       0.9108
   TERMINAL TOTAL .   173.8 +j     78.8      190.8       0.9108
818           1      -173.6 +j    -79.0      190.7       0.9103
   TERMINAL TOTAL .  -173.6 +j    -79.0      190.7       0.9103

ELEMENT = "Line.L9"
816           1       537.8 +j     72.5      542.7       0.9910
816           2       600.4 +j     58.4      603.2       0.9953
816           3       576.5 +j     15.0      576.7       0.9997
   TERMINAL TOTAL .  1714.6 +j    145.9     1720.8       0.9964
824           1      -533.2 +j    -73.4      538.3       0.9907
824           2      -594.7 +j    -57.8      597.5       0.9953
824           3      -571.8 +j    -14.5      572.0       0.9997
   TERMINAL TOTAL . -1699.7 +j   -145.7     1705.9       0.9963

ELEMENT = "Line.L10"
818           1       155.8 +j     70.0      170.8       0.9120
   TERMINAL TOTAL .   155.8 +j     70.0      170.8       0.9120
820           1      -152.3 +j    -76.4      170.3       0.8939
   TERMINAL TOTAL .  -152.3 +j    -76.4      170.3       0.8939

ELEMENT = "Line.L11"
820           1        67.7 +j     32.8       75.2       0.8998
   TERMINAL TOTAL .    67.7 +j     32.8       75.2       0.8998
822           1       -67.5 +j    -35.0       76.0       0.8878
   TERMINAL TOTAL .   -67.5 +j    -35.0       76.0       0.8878

ELEMENT = "Line.L12"
824           2        20.3 +j      9.6       22.5       0.9034
   TERMINAL TOTAL .    20.3 +j      9.6       22.5       0.9034
826           2       -20.3 +j    -10.1       22.7       0.8944
   TERMINAL TOTAL .   -20.3 +j    -10.1       22.7       0.8944

ELEMENT = "Line.L13"
824           1       533.2 +j     73.4      538.3       0.9907
824           2       552.5 +j     38.3      553.8       0.9976
824           3       568.8 +j     12.3      568.9       0.9998
   TERMINAL TOTAL .  1654.6 +j    124.0     1659.2       0.9972
828           1      -532.9 +j    -73.4      537.9       0.9906
828           2      -552.1 +j    -38.3      553.4       0.9976
828           3      -568.4 +j    -12.3      568.6       0.9998
   TERMINAL TOTAL . -1653.4 +j   -124.0     1658.0       0.9972

ELEMENT = "Line.L14"
828           1       529.4 +j     71.9      534.2       0.9909
828           2       552.1 +j     38.3      553.4       0.9976
828           3       566.4 +j     11.3      566.5       0.9998
   TERMINAL TOTAL .  1647.9 +j    121.5     1652.4       0.9973
830           1      -520.4 +j    -73.2      525.6       0.9902
830           2      -542.4 +j    -38.1      543.7       0.9975
830           3      -556.9 +j    -10.5      557.0       0.9998
   TERMINAL TOTAL . -1619.8 +j   -121.8     1624.4       0.9972

ELEMENT = "Line.L15"
830           1       501.0 +j     59.9      504.5       0.9929
830           2       532.5 +j     33.1      533.5       0.9981
830           3       538.2 +j      7.3      538.2       0.9999
   TERMINAL TOTAL .  1571.6 +j    100.4     1574.8       0.9980
854           1      -500.8 +j    -60.0      504.3       0.9929
854           2      -532.2 +j    -33.1      533.2       0.9981
854           3      -537.9 +j     -7.3      538.0       0.9999
   TERMINAL TOTAL . -1570.9 +j   -100.4     1574.1       0.9980

ELEMENT = "Line.L16"
832           1       318.4 +j    -21.1      319.1      -0.9978
832           2       345.7 +j    -45.4      348.7      -0.9915
832           3       355.7 +j    -74.6      363.4      -0.9787
   TERMINAL TOTAL .  1019.8 +j   -141.1     1029.5      -0.9906
858           1      -317.8 +j     20.1      318.4      -0.9980
858           2      -344.7 +j     44.6      347.6      -0.9917
858           3      -354.8 +j     74.0      362.5      -0.9789
   TERMINAL TOTAL . -1017.3 +j    138.7     1026.7      -0.9908

ELEMENT = "Line.L17"
834           1       102.5 +j     77.2      128.4       0.7987
834           2       106.9 +j     65.8      125.5       0.8516
834           3       110.4 +j     43.7      118.7       0.9299
   TERMINAL TOTAL .   319.8 +j    186.7      370.3       0.8636
860           1      -102.5 +j    -77.8      128.7       0.7967
860           2      -106.8 +j    -66.3      125.7       0.8497
860           3      -110.4 +j    -44.1      118.9       0.9286
   TERMINAL TOTAL .  -319.7 +j   -188.2      370.9       0.8618

ELEMENT = "Line.L18"
834           1       177.2 +j   -136.6      223.7      -0.7920
834           2       214.9 +j   -115.8      244.1      -0.8804
834           3       186.7 +j   -128.7      226.8      -0.8232
   TERMINAL TOTAL .   578.8 +j   -381.1      693.0      -0.8352
842           1      -177.2 +j    136.5      223.7      -0.7921
842           2      -214.9 +j    115.7      244.1      -0.8805
842           3      -186.7 +j    128.7      226.7      -0.8233
   TERMINAL TOTAL .  -578.7 +j    380.9      692.9      -0.8353

ELEMENT = "Line.L19"
836           1        15.9 +j      7.1       17.4       0.9126
836           2        20.4 +j     11.9       23.6       0.8650
836           3        13.7 +j     13.5       19.3       0.7127
   TERMINAL TOTAL .    50.0 +j     32.5       59.7       0.8387
840           1       -15.9 +j     -7.3       17.5       0.9077
840           2       -20.4 +j    -12.1       23.7       0.8607
840           3       -13.7 +j    -13.7       19.4       0.7078
   TERMINAL TOTAL .   -50.0 +j    -33.1       60.0       0.8338

ELEMENT = "Line.L20"
836           1        -0.0 +j     -0.1        0.1       0.0644
836           2        28.0 +j     13.0       30.9       0.9066
836           3        -0.0 +j     -0.1        0.1       0.0559
   TERMINAL TOTAL .    28.0 +j     12.9       30.8       0.9083
862           1         0.0 +j     -0.0        0.0      -0.6631
862           2       -28.0 +j    -13.1       30.9       0.9057
862           3         0.0 +j     -0.0        0.0      -0.4367
   TERMINAL TOTAL .   -28.0 +j    -13.1       30.9       0.9057

ELEMENT = "Line.L21"
842           1       172.3 +j   -139.3      221.5      -0.7777
842           2       214.9 +j   -115.7      244.1      -0.8805
842           3       186.7 +j   -128.7      226.7      -0.8233
   TERMINAL TOTAL .   573.8 +j   -383.6      690.3      -0.8313
844           1      -172.2 +j    138.9      221.3      -0.7783
844           2      -214.7 +j    115.4      243.8      -0.8808
844           3      -186.6 +j    128.4      226.5      -0.8237
   TERMINAL TOTAL .  -573.5 +j    382.8      689.5      -0.8318

ELEMENT = "Line.L22"
844           1        20.0 +j   -147.1      148.5      -0.1349
844           2        56.7 +j   -127.3      139.3      -0.4066
844           3        30.9 +j   -139.8      143.1      -0.2158
   TERMINAL TOTAL .   107.6 +j   -414.2      427.9      -0.2514
846           1       -20.0 +j    146.2      147.5      -0.1355
846           2       -56.4 +j    126.4      138.4      -0.4077
846           3       -30.8 +j    139.0      142.4      -0.2165
   TERMINAL TOTAL .  -107.2 +j    411.6      425.3      -0.2522

ELEMENT = "Line.L23"
846           1        20.0 +j   -146.2      147.5      -0.1355
846           2        31.5 +j   -138.8      142.3      -0.2216
846           3        20.0 +j   -144.9      146.3      -0.1368
   TERMINAL TOTAL .    71.5 +j   -429.9      435.8      -0.1642
848           1       -20.0 +j    146.0      147.4      -0.1356
848           2       -31.5 +j    138.7      142.2      -0.2216
848           3       -20.0 +j    144.8      146.2      -0.1369
   TERMINAL TOTAL .   -71.5 +j    429.5      435.5      -0.1642

ELEMENT = "Line.L24"
850           1       711.8 +j    151.3      727.7       0.9781
850           2       602.1 +j     58.2      604.9       0.9954
850           3       577.6 +j     16.2      577.8       0.9996
   TERMINAL TOTAL .  1891.5 +j    225.7     1904.9       0.9930
816           1      -711.6 +j   -151.3      727.5       0.9781
816           2      -601.9 +j    -58.1      604.7       0.9954
816           3      -577.5 +j    -16.2      577.7       0.9996
   TERMINAL TOTAL . -1890.9 +j   -225.7     1904.4       0.9930

ELEMENT = "Line.L25"
852R          1       485.9 +j     62.3      489.9       0.9919
852R          2       511.5 +j     34.5      512.7       0.9977
852R          3       521.9 +j      5.9      522.0       0.9999
   TERMINAL TOTAL .  1519.3 +j    102.7     1522.8       0.9977
832           1      -485.9 +j    -62.3      489.9       0.9919
832           2      -511.5 +j    -34.5      512.7       0.9977
832           3      -521.9 +j     -5.9      522.0       0.9999
   TERMINAL TOTAL . -1519.3 +j   -102.7     1522.8       0.9977

ELEMENT = "Transformer.XFM1"
832           1       166.2 +j     82.9      185.7       0.8949
832           2       165.4 +j     79.7      183.6       0.9009
832           3       165.2 +j     79.9      183.5       0.9002
832           0         0.0 +j      0.0        0.0       1.0000
   TERMINAL TOTAL .   496.8 +j    242.5      552.8       0.8986
888           1      -162.6 +j    -75.2      179.2       0.9076
888           2      -161.9 +j    -72.1      177.3       0.9134
888           3      -161.7 +j    -72.4      177.1       0.9127
888           0         0.0 +j      0.0        0.0       1.0000
   TERMINAL TOTAL .  -486.2 +j   -219.7      533.5       0.9113

ELEMENT = "Line.L26"
854           2         2.0 +j     -2.8        3.5      -0.5775
   TERMINAL TOTAL .     2.0 +j     -2.8        3.5      -0.5775
856           2        -2.0 +j     -1.0        2.2       0.8944
   TERMINAL TOTAL .    -2.0 +j     -1.0        2.2       0.8944

ELEMENT = "Line.L27"
854           1       500.8 +j     60.0      504.3       0.9929
854           2       528.2 +j     35.0      529.4       0.9978
854           3       537.9 +j      7.3      538.0       0.9999
   TERMINAL TOTAL .  1566.9 +j    102.2     1570.3       0.9979
852           1      -485.9 +j    -62.5      489.9       0.9918
852           2      -511.6 +j    -34.7      512.8       0.9977
852           3      -522.0 +j     -6.0      522.0       0.9999
   TERMINAL TOTAL . -1519.5 +j   -103.1     1523.0       0.9977

ELEMENT = "Line.L28"
858           1         1.0 +j      0.3        1.0       0.9691
   TERMINAL TOTAL .     1.0 +j      0.3        1.0       0.9691
864           1        -1.0 +j     -0.5        1.1       0.8768
   TERMINAL TOTAL .    -1.0 +j     -0.5        1.1       0.8768

ELEMENT = "Line.L29"
858           1       310.7 +j    -25.0      311.7      -0.9968
858           2       338.7 +j    -45.8      341.7      -0.9910
858           3       346.9 +j    -78.6      355.7      -0.9753
   TERMINAL TOTAL .   996.3 +j   -149.3     1007.4      -0.9890
834           1      -310.0 +j     23.8      310.9      -0.9971
834           2      -337.5 +j     44.8      340.5      -0.9913
834           3      -346.0 +j     77.8      354.6      -0.9756
   TERMINAL TOTAL .  -993.5 +j    146.4     1004.2      -0.9893

ELEMENT = "Line.L30"
860           1        38.8 +j     17.2       42.5       0.9143
860           2        68.0 +j     36.8       77.3       0.8796
860           3        33.1 +j     21.3       39.3       0.8405
   TERMINAL TOTAL .   139.9 +j     75.3      158.9       0.8805
836           1       -38.9 +j    -17.9       42.8       0.9081
836           2       -67.9 +j    -37.4       77.5       0.8757
836           3       -33.1 +j    -21.9       39.7       0.8335
   TERMINAL TOTAL .  -139.9 +j    -77.3      159.8       0.8752

ELEMENT = "Line.L31"
862           2        14.0 +j      6.1       15.3       0.9166
   TERMINAL TOTAL .    14.0 +j      6.1       15.3       0.9166
838           2       -14.0 +j     -7.0       15.7       0.8944
   TERMINAL TOTAL .   -14.0 +j     -7.0       15.7       0.8944

ELEMENT = "Line.L32"
888           1       162.6 +j     75.2      179.2       0.9076
888           2       161.9 +j     72.1      177.3       0.9134
888           3       161.7 +j     72.4      177.1       0.9127
   TERMINAL TOTAL .   486.2 +j    219.7      533.5       0.9113
890           1      -149.7 +j    -66.6      163.9       0.9136
890           2      -151.0 +j    -63.2      163.7       0.9225
890           3      -149.3 +j    -63.2      162.1       0.9209
   TERMINAL TOTAL .  -450.0 +j   -193.0      489.7       0.9190

ELEMENT = "Capacitor.C844"
844           1         0.0 +j   -109.1      109.1       1.0000
844           2         0.0 +j   -107.8      107.8      -0.0000
844           3         0.0 +j   -107.9      107.9       1.0000
   TERMINAL TOTAL .     0.0 +j   -324.9      324.9      -0.0000
844           0         0.0 +j      0.0        0.0       1.0000
844           0         0.0 +j      0.0        0.0       1.0000
844           0         0.0 +j      0.0        0.0       1.0000
   TERMINAL TOTAL .     0.0 +j      0.0        0.0       1.0000

ELEMENT = "Capacitor.C848"
848           1         0.0 +j   -163.7      163.7       1.0000
848           2         0.0 +j   -161.8      161.8       1.0000
848           3         0.0 +j   -162.0      162.0       1.0000
   TERMINAL TOTAL .     0.0 +j   -487.5      487.5       1.0000
848           0         0.0 +j      0.0        0.0       1.0000
848           0         0.0 +j      0.0        0.0       1.0000
848           0         0.0 +j      0.0        0.0       1.0000
   TERMINAL TOTAL .     0.0 +j      0.0        0.0       1.0000

ELEMENT = "Transformer.REG1A"
814           1       711.9 +j    151.7      727.9       0.9781
814           0         0.0 +j      0.0        0.0       1.0000
   TERMINAL TOTAL .   711.9 +j    151.7      727.9       0.9781
814R          1      -711.8 +j   -151.3      727.7       0.9781
814R          0         0.0 +j      0.0        0.0       1.0000
   TERMINAL TOTAL .  -711.8 +j   -151.3      727.7       0.9781

ELEMENT = "Transformer.REG1B"
814           2       602.2 +j     58.4      605.0       0.9953
814           0         0.0 +j      0.0        0.0       1.0000
   TERMINAL TOTAL .   602.2 +j     58.4      605.0       0.9953
814R          2      -602.1 +j    -58.2      604.9       0.9954
814R          0         0.0 +j      0.0        0.0       1.0000
   TERMINAL TOTAL .  -602.1 +j    -58.2      604.9       0.9954

ELEMENT = "Transformer.REG1C"
814           3       577.7 +j     16.4      577.9       0.9996
814           0         0.0 +j      0.0        0.0       1.0000
   TERMINAL TOTAL .   577.7 +j     16.4      577.9       0.9996
814R          3      -577.6 +j    -16.2      577.8       0.9996
814R          0         0.0 +j      0.0        0.0       1.0000
   TERMINAL TOTAL .  -577.6 +j    -16.2      577.8       0.9996

ELEMENT = "Transformer.REG2A"
852           1       485.9 +j     62.5      489.9       0.9918
852           0         0.0 +j      0.0        0.0       1.0000
   TERMINAL TOTAL .   485.9 +j     62.5      489.9       0.9918
852R          1      -485.9 +j    -62.3      489.9       0.9919
852R          0         0.0 +j      0.0        0.0       1.0000
   TERMINAL TOTAL .  -485.9 +j    -62.3      489.9       0.9919

ELEMENT = "Transformer.REG2B"
852           2       511.6 +j     34.7      512.8       0.9977
852           0         0.0 +j      0.0        0.0       1.0000
   TERMINAL TOTAL .   511.6 +j     34.7      512.8       0.9977
852R          2      -511.5 +j    -34.5      512.7       0.9977
852R          0         0.0 +j      0.0        0.0       1.0000
   TERMINAL TOTAL .  -511.5 +j    -34.5      512.7       0.9977

ELEMENT = "Transformer.REG2C"
852           3       522.0 +j      6.0      522.0       0.9999
852           0         0.0 +j      0.0        0.0       1.0000
   TERMINAL TOTAL .   522.0 +j      6.0      522.0       0.9999
852R          3      -521.9 +j     -5.9      522.0       0.9999
852R          0         0.0 +j      0.0        0.0       1.0000
   TERMINAL TOTAL .  -521.9 +j     -5.9      522.0       0.9999

= = = = = = = = = = = = = = = = = = =  = = = = = = = = = = =  = =

Power Conversion Elements

  Bus     Phase     kW   +j  kvar         kVA         PF

ELEMENT = "Load.S860"
860           1      20.0 +j   17.4       26.5       0.7536
860           2      20.0 +j   17.3       26.4       0.7572
860           3      20.0 +j   17.3       26.4       0.7570
860           0       0.0 +j    0.0        0.0       1.0000
  TERMINAL TOTAL  .    60.0 +j     52.0       79.4       0.7559

ELEMENT = "Load.S840"
840           1       9.8 +j    7.6       12.4       0.7894
840           2       9.7 +j    7.5       12.3       0.7894
840           3       9.7 +j    7.6       12.3       0.7894
840           0       0.0 +j    0.0        0.0       1.0000
  TERMINAL TOTAL  .    29.2 +j     22.7       37.0       0.7894

ELEMENT = "Load.S844"
844           1     147.3 +j  114.5      186.6       0.7894
844           2     145.6 +j  113.2      184.4       0.7894
844           3     145.7 +j  113.3      184.6       0.7894
844           0       0.0 +j    0.0        0.0       1.0000
  TERMINAL TOTAL  .   438.5 +j    341.1      555.6       0.7894

ELEMENT = "Load.S848"
848           1      20.0 +j   17.7       26.7       0.7491
848           2      20.0 +j   17.2       26.4       0.7592
848           3      20.0 +j   17.2       26.4       0.7588
  TERMINAL TOTAL  .    60.0 +j     52.0       79.4       0.7557

ELEMENT = "Load.S830A"
830           1       6.4 +j   -0.3        6.4      -0.9986
830           2       3.6 +j    5.4        6.4       0.5558
  TERMINAL TOTAL  .    10.0 +j      5.0       11.2       0.8944

ELEMENT = "Load.S830B"
830           2       6.4 +j   -0.4        6.4      -0.9979
830           3       3.5 +j    5.4        6.4       0.5465
  TERMINAL TOTAL  .     9.9 +j      4.9       11.0       0.8944

ELEMENT = "Load.S830C"
830           3      15.3 +j   -2.2       15.4      -0.9896
830           1       9.6 +j   12.1       15.5       0.6181
  TERMINAL TOTAL  .    24.8 +j      9.9       26.7       0.9285

ELEMENT = "Load.S890"
890           1     149.7 +j   66.6      163.9       0.9136
890           2     151.0 +j   63.2      163.7       0.9225
890           3     149.3 +j   63.2      162.1       0.9209
  TERMINAL TOTAL  .   450.0 +j    193.0      489.7       0.9190

ELEMENT = "Load.D858_864SB"
858           1       1.1 +j    0.5        1.2       0.8944
858           0       0.0 +j    0.0        0.0       1.0000
  TERMINAL TOTAL  .     1.1 +j      0.5        1.2       0.8944

ELEMENT = "Load.D858_864RB"
864           1       1.0 +j    0.5        1.1       0.8768
864           0       0.0 +j    0.0        0.0       1.0000
  TERMINAL TOTAL  .     1.0 +j      0.5        1.1       0.8768

ELEMENT = "Load.D858_834SA"
858           1       1.4 +j   -0.1        1.4      -0.9988
858           2       0.8 +j    1.2        1.4       0.5573
  TERMINAL TOTAL  .     2.2 +j      1.1        2.5       0.8944

ELEMENT = "Load.D858_834RA"
834           1       1.3 +j   -0.0        1.3      -0.9999
834           2       0.7 +j    1.1        1.3       0.5256
  TERMINAL TOTAL  .     2.0 +j      1.1        2.3       0.8767

ELEMENT = "Load.D842_844SA"
842           1       4.9 +j    2.7        5.6       0.8742
842           0       0.0 +j    0.0        0.0       1.0000
  TERMINAL TOTAL  .     4.9 +j      2.7        5.6       0.8742

ELEMENT = "Load.D842_844RA"
844           1       4.9 +j    2.7        5.6       0.8742
844           0       0.0 +j    0.0        0.0       1.0000
  TERMINAL TOTAL  .     4.9 +j      2.7        5.6       0.8742

ELEMENT = "Load.D844_846SB"
844           2      12.5 +j    6.5       14.1       0.8881
844           0       0.0 +j    0.0        0.0       1.0000
  TERMINAL TOTAL  .    12.5 +j      6.5       14.1       0.8881

ELEMENT = "Load.D844_846RB"
846           2      12.5 +j    6.5       14.1       0.8881
846           0       0.0 +j    0.0        0.0       1.0000
  TERMINAL TOTAL  .    12.5 +j      6.5       14.1       0.8881

ELEMENT = "Load.D844_846SC"
844           3      10.0 +j    5.9       11.6       0.8599
844           0       0.0 +j    0.0        0.0       1.0000
  TERMINAL TOTAL  .    10.0 +j      5.9       11.6       0.8599

ELEMENT = "Load.D844_846RC"
846           3      10.8 +j    5.9       12.3       0.8762
846           0       0.0 +j    0.0        0.0       1.0000
  TERMINAL TOTAL  .    10.8 +j      5.9       12.3       0.8762

ELEMENT = "Load.D846_848SB"
846           2      12.4 +j    5.9       13.7       0.9021
846           0       0.0 +j    0.0        0.0       1.0000
  TERMINAL TOTAL  .    12.4 +j      5.9       13.7       0.9021

ELEMENT = "Load.D846_848RB"
848           2      11.5 +j    5.9       12.9       0.8888
848           0       0.0 +j    0.0        0.0       1.0000
  TERMINAL TOTAL  .    11.5 +j      5.9       12.9       0.8888

ELEMENT = "Load.D802_806SB"
802           2      15.0 +j    7.5       16.8       0.8944
802           0       0.0 +j    0.0        0.0       1.0000
  TERMINAL TOTAL  .    15.0 +j      7.5       16.8       0.8944

ELEMENT = "Load.D802_806RB"
806           2      15.0 +j    7.5       16.8       0.8944
806           0       0.0 +j    0.0        0.0       1.0000
  TERMINAL TOTAL  .    15.0 +j      7.5       16.8       0.8944

ELEMENT = "Load.D802_806SC"
802           3      12.5 +j    7.0       14.3       0.8725
802           0       0.0 +j    0.0        0.0       1.0000
  TERMINAL TOTAL  .    12.5 +j      7.0       14.3       0.8725

ELEMENT = "Load.D802_806RC"
806           3      12.5 +j    7.0       14.3       0.8725
806           0       0.0 +j    0.0        0.0       1.0000
  TERMINAL TOTAL  .    12.5 +j      7.0       14.3       0.8725

ELEMENT = "Load.D808_810SB"
808           2       8.2 +j    4.2        9.3       0.8892
808           0       0.0 +j    0.0        0.0       1.0000
  TERMINAL TOTAL  .     8.2 +j      4.2        9.3       0.8892

ELEMENT = "Load.D808_810RB"
810           2       8.2 +j    4.2        9.3       0.8892
810           0       0.0 +j    0.0        0.0       1.0000
  TERMINAL TOTAL  .     8.2 +j      4.2        9.3       0.8892

ELEMENT = "Load.D818_820SA"
818           1      17.9 +j    8.9       20.0       0.8944
818           0       0.0 +j    0.0        0.0       1.0000
  TERMINAL TOTAL  .    17.9 +j      8.9       20.0       0.8944

ELEMENT = "Load.D818_820RA"
820           1      17.1 +j    8.5       19.1       0.8944
820           0       0.0 +j    0.0        0.0       1.0000
  TERMINAL TOTAL  .    17.1 +j      8.5       19.1       0.8944

ELEMENT = "Load.D820_822SA"
820           1      67.5 +j   35.0       76.0       0.8878
820           0       0.0 +j    0.0        0.0       1.0000
  TERMINAL TOTAL  .    67.5 +j     35.0       76.0       0.8878

ELEMENT = "Load.D820_822RA"
822           1      67.5 +j   35.0       76.0       0.8878
822           0       0.0 +j    0.0        0.0       1.0000
  TERMINAL TOTAL  .    67.5 +j     35.0       76.0       0.8878

ELEMENT = "Load.D816_824SB"
816           2       1.6 +j   -0.2        1.6      -0.9889
816           3       1.0 +j    1.3        1.6       0.6134
  TERMINAL TOTAL  .     2.6 +j      1.0        2.7       0.9285

ELEMENT = "Load.D816_824RB"
824           2       1.6 +j   -0.2        1.6      -0.9889
824           3       1.0 +j    1.2        1.6       0.6138
  TERMINAL TOTAL  .     2.5 +j      1.0        2.7       0.9285

ELEMENT = "Load.D828_830SA"
828           1       3.5 +j    1.5        3.8       0.9191
828           0       0.0 +j    0.0        0.0       1.0000
  TERMINAL TOTAL  .     3.5 +j      1.5        3.8       0.9191

ELEMENT = "Load.D828_830RA"
830           1       3.5 +j    1.5        3.8       0.9191
830           0       0.0 +j    0.0        0.0       1.0000
  TERMINAL TOTAL  .     3.5 +j      1.5        3.8       0.9191

ELEMENT = "Load.D854_856SB"
854           2       2.0 +j    1.0        2.2       0.8944
854           0       0.0 +j    0.0        0.0       1.0000
  TERMINAL TOTAL  .     2.0 +j      1.0        2.2       0.8944

ELEMENT = "Load.D854_856RB"
856           2       2.0 +j    1.0        2.2       0.8944
856           0       0.0 +j    0.0        0.0       1.0000
  TERMINAL TOTAL  .     2.0 +j      1.0        2.2       0.8944

ELEMENT = "Load.D832_858SA"
832           1       1.3 +j    0.6        1.4       0.9191
832           0       0.0 +j    0.0        0.0       1.0000
  TERMINAL TOTAL  .     1.3 +j      0.6        1.4       0.9191

ELEMENT = "Load.D832_858RA"
858           1       1.3 +j    0.5        1.4       0.9191
858           0       0.0 +j    0.0        0.0       1.0000
  TERMINAL TOTAL  .     1.3 +j      0.5        1.4       0.9191

ELEMENT = "Load.D832_858SB"
832           2       0.4 +j    0.2        0.4       0.8944
832           0       0.0 +j    0.0        0.0       1.0000
  TERMINAL TOTAL  .     0.4 +j      0.2        0.4       0.8944

ELEMENT = "Load.D832_858RB"
858           2       0.4 +j    0.2        0.4       0.8944
858           0       0.0 +j    0.0        0.0       1.0000
  TERMINAL TOTAL  .     0.4 +j      0.2        0.4       0.8944

ELEMENT = "Load.D832_858SC"
832           3       1.1 +j    0.5        1.2       0.8944
832           0       0.0 +j    0.0        0.0       1.0000
  TERMINAL TOTAL  .     1.1 +j      0.5        1.2       0.8944

ELEMENT = "Load.D832_858RC"
858           3       1.1 +j    0.5        1.2       0.8944
858           0       0.0 +j    0.0        0.0       1.0000
  TERMINAL TOTAL  .     1.1 +j      0.5        1.2       0.8944

ELEMENT = "Load.D824_826SB"
824           2      20.3 +j   10.1       22.7       0.8944
824           0       0.0 +j    0.0        0.0       1.0000
  TERMINAL TOTAL  .    20.3 +j     10.1       22.7       0.8944

ELEMENT = "Load.D824_826RB"
826           2      20.3 +j   10.1       22.7       0.8944
826           0       0.0 +j    0.0        0.0       1.0000
  TERMINAL TOTAL  .    20.3 +j     10.1       22.7       0.8944

ELEMENT = "Load.D824_828SC"
824           3       2.0 +j    1.0        2.2       0.8944
824           0       0.0 +j    0.0        0.0       1.0000
  TERMINAL TOTAL  .     2.0 +j      1.0        2.2       0.8944

ELEMENT = "Load.D824_828RC"
828           3       2.0 +j    1.0        2.2       0.8944
828           0       0.0 +j    0.0        0.0       1.0000
  TERMINAL TOTAL  .     2.0 +j      1.0        2.2       0.8944

ELEMENT = "Load.D834_860SA"
834           1       5.6 +j   -0.3        5.7      -0.9988
834           2       3.1 +j    4.7        5.6       0.5576
  TERMINAL TOTAL  .     8.8 +j      4.4        9.8       0.8944

ELEMENT = "Load.D834_860RA"
860           1       5.6 +j   -0.3        5.6      -0.9988
860           2       3.1 +j    4.7        5.6       0.5577
  TERMINAL TOTAL  .     8.8 +j      4.4        9.8       0.8944

ELEMENT = "Load.D834_860SB"
834           2       6.9 +j   -0.4        7.0      -0.9979
834           3       3.8 +j    5.8        7.0       0.5477
  TERMINAL TOTAL  .    10.7 +j      5.4       12.0       0.8944

ELEMENT = "Load.D834_860RB"
860           2       6.9 +j   -0.4        6.9      -0.9979
860           3       3.8 +j    5.8        6.9       0.5477
  TERMINAL TOTAL  .    10.7 +j      5.4       12.0       0.8944

ELEMENT = "Load.D834_860SC"
834           3      38.2 +j   -2.6       38.3      -0.9978
834           1      21.1 +j   32.2       38.5       0.5477
  TERMINAL TOTAL  .    59.3 +j     29.7       66.3       0.8944

ELEMENT = "Load.D834_860RC"
860           3      38.2 +j   -2.6       38.3      -0.9978
860           1      21.1 +j   32.2       38.5       0.5476
  TERMINAL TOTAL  .    59.3 +j     29.6       66.3       0.8944

ELEMENT = "Load.D860_836SA"
860           1       9.6 +j   -0.5        9.7      -0.9988
860           2       5.4 +j    8.0        9.6       0.5577
  TERMINAL TOTAL  .    15.0 +j      7.5       16.8       0.8944

ELEMENT = "Load.D860_836RA"
836           1       9.6 +j   -0.5        9.7      -0.9988
836           2       5.4 +j    8.0        9.6       0.5576
  TERMINAL TOTAL  .    15.0 +j      7.5       16.8       0.8944

ELEMENT = "Load.D860_836SB"
860           2       3.4 +j    0.0        3.4       0.9999
860           3       1.6 +j    3.0        3.4       0.4820
  TERMINAL TOTAL  .     5.0 +j      3.0        5.8       0.8575

ELEMENT = "Load.D860_836RB"
836           2       3.4 +j    0.0        3.4       0.9999
836           3       1.6 +j    3.0        3.4       0.4820
  TERMINAL TOTAL  .     5.0 +j      3.0        5.8       0.8575

ELEMENT = "Load.D860_836SC"
860           3      13.7 +j   -0.7       13.7      -0.9988
860           1       7.3 +j   11.7       13.8       0.5317
  TERMINAL TOTAL  .    21.0 +j     11.0       23.7       0.8858

ELEMENT = "Load.D860_836RC"
836           3      13.7 +j   -0.7       13.7      -0.9988
836           1       7.3 +j   11.7       13.8       0.5317
  TERMINAL TOTAL  .    21.0 +j     11.0       23.7       0.8858

ELEMENT = "Load.D836_840SA"
836           1       6.1 +j   -0.3        6.1      -0.9988
836           2       3.4 +j    5.0        6.0       0.5576
  TERMINAL TOTAL  .     9.4 +j      4.7       10.5       0.8944

ELEMENT = "Load.D836_840RA"
840           1       6.1 +j   -0.3        6.1      -0.9988
840           2       3.4 +j    5.0        6.0       0.5576
  TERMINAL TOTAL  .     9.4 +j      4.7       10.5       0.8944

ELEMENT = "Load.D836_840SB"
836           2       7.4 +j   -0.5        7.4      -0.9979
836           3       4.0 +j    6.2        7.4       0.5478
  TERMINAL TOTAL  .    11.4 +j      5.7       12.7       0.8944

ELEMENT = "Load.D836_840RB"
840           2       7.4 +j   -0.5        7.4      -0.9979
840           3       4.0 +j    6.2        7.4       0.5478
  TERMINAL TOTAL  .    11.4 +j      5.7       12.7       0.8944

ELEMENT = "Load.D858_834SB"
858           2       4.9 +j   -0.2        4.9      -0.9993
858           3       2.6 +j    4.2        4.9       0.5253
  TERMINAL TOTAL  .     7.5 +j      4.0        8.5       0.8824

ELEMENT = "Load.D858_834RB"
834           2       4.9 +j   -0.2        4.9      -0.9993
834           3       2.6 +j    4.2        4.9       0.5255
  TERMINAL TOTAL  .     7.5 +j      4.0        8.5       0.8824

ELEMENT = "Load.D858_834SC"
858           3       4.3 +j   -0.2        4.3      -0.9993
858           1       2.2 +j    3.7        4.3       0.5225
  TERMINAL TOTAL  .     6.5 +j      3.5        7.4       0.8805

ELEMENT = "Load.D858_834RC"
834           3       4.3 +j   -0.2        4.3      -0.9993
834           1       2.2 +j    3.7        4.3       0.5221
  TERMINAL TOTAL  .     6.5 +j      3.5        7.4       0.8805

ELEMENT = "Load.D862_838SB"
862           2      14.0 +j    7.0       15.7       0.8944
862           0       0.0 +j    0.0        0.0       1.0000
  TERMINAL TOTAL  .    14.0 +j      7.0       15.7       0.8944

ELEMENT = "Load.D862_838RB"
838           2      14.0 +j    7.0       15.7       0.8944
838           0       0.0 +j    0.0        0.0       1.0000
  TERMINAL TOTAL  .    14.0 +j      7.0       15.7       0.8944


Total Circuit Losses =  290.6 +j   48.9
